tests/fuzzer/corpus_json/24_columnar_21_random_036.json
{
  "version": "1.0",
  "type": "input",
  "is_batch": false,
  "attributes": {
    "node": [
      "id",
      "u_rated"
    ],
    "source": [
      "id",
      "node",
      "status",
      "u_ref",
      "u_ref_angle",
      "sk",
      "rx_ratio",
      "z01_ratio"
    ],
    "line": [
      "id",
      "from_node",
      "to_node",
      "from_status",
      "to_status",
      "r1",
      "x1",
      "c1",
      "tan1",
      "r0",
      "x0",
      "c0",
      "tan0",
      "i_n"
    ],
    "sym_load": [
      "id",
      "node",
      "status",
      "type",
      "p_specified",
      "q_specified"
    ]
  },
  "data": {
    "node": [
      [
        0,
        230.0
      ],
      [
        1,
        230.0
      ],
      [
        2,
        230.0
      ],
      [
        3,
        230.0
      ],
      [
        4,
        230.0
      ],
      [
        5,
        230.0
      ],
      [
        6,
        230.0
      ]
    ],
    "source": [
      [
        7,
        0,
        1,
        1.0918495070954692,
        0.0,
        983215595.1846204,
        0.4591622200212863,
        1.0
      ]
    ],
    "line": [
      [
        8,
        0,
        1,
        1,
        1,
        4.375333118386357,
        0.0020138734027191907,
        6.269890530143344e-07,
        0.0,
        0.3,
        0.3,
        1e-09,
        0.0,
        255.16621929943935
      ],
      [
        9,
        1,
        2,
        1,
        1,
        3.652222292585483,
        2.1619472788465672,
        5.600881671017947e-07,
        0.0,
        0.3,
        0.3,
        1e-09,
        0.0,
        547.3473146332169
      ],
      [
        10,
        2,
        3,
        1,
        1,
        2.8808099183384273,
        4.1367057893428765,
        9.815468966212772e-07,
        0.0,
        0.3,
        0.3,
        1e-09,
        0.0,
        352.0923229213836
      ],
      [
        11,
        3,
        4,
        1,
        1,
        4.030506029562536,
        4.446320468310657,
        3.920708311174756e-07,
        0.0,
        0.3,
        0.3,
        1e-09,
        0.0,
        132.22271374611307
      ],
      [
        12,
        4,
        5,
        1,
        1,
        2.486938823074118,
        3.8232811988720075,
        5.241956434720472e-07,
        0.0,
        0.3,
        0.3,
        1e-09,
        0.0,
        192.62015303077854
      ],
      [
        13,
        5,
        6,
        1,
        1,
        3.5273504850751545,
        1.6226585847614738,
        8.862404864225237e-07,
        0.0,
        0.3,
        0.3,
        1e-09,
        0.0,
        176.8088913942172
      ]
    ],
    "sym_load": [
      [
        14,
        1,
        1,
        1,
        80139.56246516985,
        -108.19224437764024
      ],
      [
        15,
        3,
        1,
        1,
        60680.2675249601,
        7356.090917377453
      ]
    ]
  }
}
